<routes>
   <vType id="car" type="passenger" length="5" maxSpeed="25" accel="3.5" decel="2.2" sigma="1.0"/>
   <flow id="carflow" type="car" beg="0" end="0" number="1" from="edge1" to="edge2" />
</routes>
